52
Coordinates from ORCA-job C7_CuL_OH_aq_B3LYP_def2SVP E -2901.739857804160
N     6.87271965    2.57595097    5.89207494
O     7.67219960    5.34809264    5.59128321
C     6.54936809    1.28007517    5.25504013
C     8.16187127    2.64380770    6.61863780
C     8.24399899    3.89853483    7.44880910
C     7.98766157    5.17649256    6.86317820
C     8.09869022    6.31410564    7.70344250
C     8.44730807    6.20276362    9.04782593
C     8.68934261    4.94596341    9.61580660
C     8.57771722    3.81164001    8.80637124
H     7.90385231    7.29268133    7.25545164
H     8.75771229    2.82091420    9.23539521
N     6.91682591    2.45231027    3.18071302
O     6.73136519    5.27589202    2.99103653
C     7.18431360    1.19768851    3.87126356
O     4.41798892   12.89771258   -4.24940693
C     6.62446668    2.50181968    1.92403177
C     6.36654250    3.70059004    1.17469233
C     6.43472280    5.02405191    1.74518641
C     6.16180543    6.11638495    0.88332168
C     5.83140391    5.95811704   -0.46652372
C     5.77198362    4.64310608   -1.00351019
C     6.03563252    3.55608615   -0.19501877
C     5.53855286    7.08056077   -1.35988919
C     5.54340368    8.39247954   -1.02750179
C     5.24526006    9.52229148   -1.90549030
C     5.31015496   10.83138303   -1.38215759
C     5.03525336   11.94896002   -2.16516378
C     4.68248326   11.78453155   -3.51226035
C     4.61156157   10.49110920   -4.05691943
C     4.88840421    9.38271753   -3.26451994
H     6.56503706    1.55513817    1.36285694
H     6.21936794    7.10928378    1.33390450
H     5.99055466    2.54488363   -0.60988282
H     5.79119164    8.67450118    0.00132007
H     5.58348641   10.96903348   -0.33232171
H     5.08853196   12.95717487   -1.74818071
H     4.33624650   10.36721887   -5.10821305
H     4.82243369    8.39028488   -3.71531232
Cu    7.00693546    3.98154552    4.40429416
H     8.27700394    1.06941731    3.96411302
H     6.79350425    0.33017625    3.31447139
H     5.45486799    1.23005267    5.15967991
H     6.87795645    0.43752987    5.88634195
H     8.95453435    4.84969094   10.67131747
H     5.51755267    4.50284918   -2.05648123
H     5.29421035    6.79026206   -2.38670279
H     8.52423642    7.10630118    9.66016861
H     6.12505753    2.82508600    6.54337828
H     8.97414863    2.60036883    5.87145747
H     8.27187901    1.75894934    7.26778191
H     4.18748614   12.64034756   -5.15675087
