69
Coordinates from ORCA-job DG_L1_aq_B3LYP_def2SVP E -1833.205665583015
N     7.74043929    4.88699061    6.12337005
O     9.88538805    6.83390633    5.66944735
C     6.90030101    3.85128807    5.56073033
C     8.61437294    4.52027030    6.98961070
C     9.66780289    5.34743215    7.57350133
C    10.26695136    6.45453305    6.82670779
C    11.38513705    7.10425226    7.45710403
C    11.86499226    6.72565434    8.70105191
C    11.27782155    5.66542685    9.41136186
C    10.19529049    4.97587581    8.84795746
H     8.60122934    3.46597312    7.33678974
H    11.85617222    7.93086388    6.91514633
O    12.91911159    7.36897184    9.30017318
N     6.30428397    5.28977102    2.92133598
O     4.25851142    7.37964953    3.00396096
C     7.55021902    4.59272818    3.16768006
C     5.83273036    5.21757480    1.72633565
C     4.61193760    5.81232203    1.19375280
C     3.91749640    6.91141462    1.87034277
C     2.80663675    7.49117387    1.16255809
C     2.38337359    7.02454392   -0.07020258
C     3.03650930    5.94949566   -0.69798505
C     4.14238765    5.35194611   -0.07744428
H     6.41748504    4.64659536    0.97804225
H     2.28110616    8.32253315    1.64043186
O     1.29819023    7.62711430   -0.65599355
H     7.43041853   -0.95458013   -4.44394269
C     6.55437726    0.72030620   -2.87293448
O     7.07064358   -0.26748675   -5.02756800
C     6.54680837    0.74354473   -4.27734034
C     6.00581451    1.77684255   -2.15255478
C     5.98323696    1.83918863   -4.94529154
C     5.43413074    2.89174900   -2.80208084
C     5.43920322    2.89138152   -4.21248250
H     6.99438319   -0.13619793   -2.35380415
C     4.78054928    4.20395775   -0.75218642
C     4.84871527    4.03144794   -2.09127718
H     6.02517303    1.73036651   -1.06153955
H     5.97962172    1.85223844   -6.03762044
H     5.00317216    3.74166262   -4.74436730
H     4.44757288    4.81605911   -2.74229797
H     5.21281287    3.43461887   -0.10758922
C    10.47770293    1.22969444   12.12577479
H    11.54617421    1.46018663   12.16102680
C     9.98494439    0.17585297   12.89184669
C    10.22123065    3.09062399   10.50661299
H    11.29623004    3.23780625   10.65794911
H    10.64795439   -0.41903356   13.52427419
C     9.63774858    2.00687994   11.30114562
C     9.57762018    3.87703951    9.61468544
C     8.61833840   -0.13291394   12.85410843
C     8.26461264    1.68123748   11.28597071
O     8.17151544   -1.17352112   13.61350276
C     7.75995802    0.63117535   12.04648751
H     7.21577372   -1.28459807   13.48492277
H     7.57271909    2.25814755   10.66835524
H     6.69277043    0.39206561   12.02270271
H    11.64522970    5.42655610   10.41000785
H     2.64180014    5.55785081   -1.63799933
H     8.51386075    3.69839112    9.43867528
C     7.38831128    3.44063763    4.16522184
H     8.36802725    2.94128992    4.27182131
H     6.69011419    2.69256487    3.74909501
H     8.28257437    5.30347247    3.58928367
H     7.98934144    4.18891445    2.23053371
H     5.86800038    4.23096907    5.47903657
H     6.86888049    2.94484750    6.20184466
H     1.12138026    7.19900691   -1.50811551
H    13.23030556    8.07592590    8.71302956
