70
Coordinates from ORCA-job DG_CuL1_aq_B3LYP_def2SVP E -3473.304823111527
N     7.32504884    4.04158699    5.74124501
O     7.81757718    6.80423020    5.70506861
C     6.75381204    2.77412950    5.29776101
C     7.78589245    4.15423166    6.94755596
C     8.31484136    5.33354826    7.57059030
C     8.31125584    6.61046219    6.89317000
C     8.86917271    7.72912727    7.56236083
C     9.40628546    7.60760289    8.83664170
C     9.40161797    6.37105876    9.50902454
C     8.86268811    5.24009934    8.90004308
H     7.76110548    3.24304406    7.55905787
H     8.86219493    8.69496291    7.05092454
O     9.93855751    8.66660106    9.50198119
N     7.32294835    4.24558752    2.88916268
O     6.52572810    6.90230666    3.29178037
C     8.14496948    3.06482303    3.12832164
C     6.78166331    4.44100242    1.72918385
C     6.01935764    5.58607181    1.31605269
C     5.98421673    6.79206085    2.11267174
C     5.35066125    7.93602666    1.56780939
C     4.74669472    7.89520482    0.31737793
C     4.74677441    6.71452249   -0.44860518
C     5.37713883    5.56645499    0.03024435
H     6.95064231    3.66255923    0.97227138
H     5.33013692    8.85415814    2.15776002
O     4.13704203    9.02490216   -0.13168879
Cu    7.23345546    5.49124034    4.41229925
H     5.00396397   -1.00996601   -5.07570638
C     5.08609823    0.69211501   -3.30785752
O     5.04466686   -0.17594383   -5.57066769
C     5.09736803    0.87093652   -4.70169616
C     5.14230431    1.79443664   -2.46163521
C     5.16407807    2.16715468   -5.23181832
C     5.21335586    3.10875580   -2.97190183
C     5.22058053    3.26221127   -4.37417471
H     5.03120065   -0.32052630   -2.89815644
C     5.34566303    4.33651495   -0.77734039
C     5.28081068    4.30198805   -2.12757951
H     5.12799251    1.62599063   -1.38256927
H     5.17082980    2.29882718   -6.31616001
H     5.27296112    4.26933643   -4.79688460
H     5.29810648    5.24845207   -2.67877947
H     5.36836706    3.39005949   -0.23234332
C    10.91214111    2.14570214   12.20524047
H    11.72139210    2.88015220   12.24605338
C    10.99686341    0.99730969   12.98784167
C     9.78665484    3.61443346   10.55918652
H    10.63549819    4.28515081   10.73027504
H    11.85590295    0.82099564   13.63914450
C     9.81036032    2.38852386   11.35861252
C     8.85728956    3.96895013    9.64377120
C     9.96589983    0.04814187   12.94456224
C     8.78350441    1.42057520   11.33444074
O    10.08171814   -1.06277038   13.72380418
C     8.85646176    0.26904866   12.11112391
H     9.30480948   -1.63137670   13.59947999
H     7.90655517    1.56788612   10.70039391
H     8.05195062   -0.47186405   12.08333339
H     9.78892058    6.33163897   10.52720294
H     4.21200230    6.70013682   -1.40032926
H     8.03671173    3.27671677    9.44242205
C     7.54301910    2.10271916    4.16463606
H     8.37062476    1.50988688    4.58583006
H     6.86000812    1.39658045    3.66581952
H     9.12514474    3.41740994    3.48899048
H     8.32521799    2.52573969    2.18302545
H     5.72956291    2.98371342    4.94805161
H     6.66633990    2.07727522    6.14828018
H     9.88054383    9.46273736    8.94917250
H     3.75792555    8.86445792   -1.01087038
