66
Coordinates from ORCA-job DG_L2_aq_B3LYP_def2SVP E -1793.942059889563
N     7.32265539    5.50423792    5.86062419
O     7.56704564    8.14436295    7.09640690
C     7.35108647    4.49259382    4.82693792
C     7.93025475    5.21060597    6.95688268
C     8.10254123    6.03313176    8.14771055
C     7.94778743    7.48867606    8.11833183
C     8.28927842    8.18609802    9.33163783
C     8.70662803    7.52940460   10.47683702
C     8.82276181    6.12793380   10.50415141
C     8.52773428    5.38730245    9.35302112
H     8.39905666    4.20898478    7.03169583
H     8.19420447    9.27687695    9.32587348
O     9.00435502    8.19785850   11.63818252
N     7.32522294    6.01237662    2.84937543
O     6.42004610    8.62809610    1.97497113
C     8.03321877    4.94972345    3.53081294
C     6.83732007    5.71248229    1.69540902
C     6.08374053    6.55526180    0.77768148
C     5.97190298    8.00480613    0.96039284
C     5.33196816    8.73300283   -0.10352918
C     4.80286616    8.10821781   -1.21962535
C     4.87443070    6.71068310   -1.36517474
C     5.50827436    5.94115186   -0.38092602
H     7.02031942    4.68855398    1.31424407
H     5.25530088    9.81870588    0.00176033
O     4.18936254    8.88569200   -2.16991793
H     9.05156990    5.29331164    3.79154537
H     8.15218378    4.05113930    2.88753321
H     6.31412695    4.20575129    4.56935203
H     7.86593564    3.56737229    5.16515312
H     5.38066079   -2.23984120   -2.03142922
C     5.39141783    0.07577031   -1.20563952
O     5.47681961   -1.71410434   -2.84148680
C     5.49844154   -0.38735243   -2.52753675
C     5.41806062    1.44117697   -0.93816699
C     5.63240643    0.53678942   -3.57263150
C     5.55296173    2.39096748   -1.97327720
C     5.65889078    1.90070166   -3.29139662
H     5.28616815   -0.64706844   -0.39127171
C     5.52339077    4.47481812   -0.55600818
C     5.58848807    3.83826141   -1.74646073
H     5.33207413    1.77141092    0.09949842
H     5.71465513    0.17135025   -4.59883875
H     5.76399430    2.61271044   -4.11483405
H     5.69311575    4.43942871   -2.65646360
H     5.45402158    3.87132662    0.35244025
C    10.56133603    1.21366161   11.17310691
H    11.24909953    1.88394002   11.69626321
C    10.69338445   -0.16251065   11.34362720
C     9.48083243    3.22532983   10.20525275
H    10.21986532    3.78247533   10.79164370
H    11.47003619   -0.57836040   11.98962264
C     9.56467669    1.76877309   10.34385843
C     8.61456037    3.91513500    9.43026831
C     9.81957334   -1.03332543   10.67866912
C     8.69601128    0.87139016    9.68653894
O     9.97766383   -2.37430401   10.86839582
C     8.81820418   -0.50533894    9.84735635
H     9.31529841   -2.85586757   10.34751798
H     7.90631106    1.25245489    9.03521891
H     8.13634141   -1.18710905    9.33078513
H     9.09054294    5.63636307   11.44013841
H     4.38774086    6.23547233   -2.21951875
H     7.90283984    3.35207217    8.82129875
H     8.88066676    9.15000833   11.49748780
H     3.86988836    8.31721838   -2.88802969
