56
Coordinates from ORCA-job DF_CuL_aq_B3LYP_def2SVP E -3016.138566931832
N     7.10002251    4.14322613    5.81244920
O     7.98535742    6.85024443    5.63064794
C     6.59500318    2.86180935    5.28257375
C     8.37374368    4.08736076    6.56356363
C     8.54661704    5.31410540    7.42276861
C     8.33847592    6.62102698    6.88295490
C     8.53889058    7.72511295    7.75171549
C     8.93004706    7.55611019    9.07807269
C     9.12574072    6.27171327    9.60043942
C     8.92423112    5.16998824    8.76388083
H     8.37945559    8.72543985    7.33908435
H     9.07710818    8.43568551    9.71206778
N     7.29410726    4.29850343    2.89826555
O     6.61324432    7.00283859    3.21855067
C     8.09661316    3.11235439    3.17057218
C     6.78294118    4.48962557    1.72413328
C     6.06234457    5.64994673    1.27852637
C     6.06957983    6.87866607    2.04133865
C     5.48013425    8.02889054    1.46175419
C     4.87906717    7.97586502    0.21020934
C     4.83946247    6.77539636   -0.52340888
C     5.42586754    5.61911451   -0.00980755
H     6.94592818    3.69467090    0.98311009
H     5.49117115    8.96342512    2.02564727
O     4.31232223    9.11472899   -0.27072935
Cu    7.22862395    5.58038615    4.38164749
H     4.85273243   -1.09858952   -4.90494598
C     4.98139612    0.65842510   -3.19435617
O     4.92890244   -0.28371080   -5.42701345
C     5.01115219    0.78955542   -4.59316915
C     5.06905349    1.78579905   -2.38485469
C     5.12819200    2.06418814   -5.16529092
C     5.19082814    3.07898624   -2.93751333
C     5.21560014    3.18491221   -4.34397521
H     4.88728379   -0.33724678   -2.75148279
C     5.35379316    4.36848291   -0.78196535
C     5.29392400    4.29563144   -2.13093669
H     5.03943697    1.65412361   -1.30095042
H     5.14901859    2.15928017   -6.25328346
H     5.30724542    4.17472445   -4.79969433
H     5.34602860    5.22341731   -2.71095449
H     5.34150813    3.43819341   -0.20946118
H     9.06664537    4.15865808    9.15774336
H     9.42370880    6.12916676   10.64190345
H     4.30835045    6.75392045   -1.47705361
C     7.49386183    2.18910493    4.24491533
H     8.32415205    1.66214265    4.74075759
H     6.87658866    1.41414576    3.76306558
H     9.08700278    3.46163110    3.50749813
H     8.26006670    2.54150108    2.24104108
H     5.61191342    3.08114174    4.84046484
H     6.42609453    2.15699292    6.11618722
H     3.92814914    8.94499361   -1.14583778
H     9.19654490    3.98721592    5.83408420
H     8.39372680    3.18637166    7.20011527
H     6.38394873    4.51265554    6.44476507
