55
Coordinates from ORCA-job DF_L_aq_B3LYP_def2SVP E -1376.049842239936
N     6.98589885    4.55590274    6.39758286
O    10.21704557    4.90466785    5.53329834
C     5.95505383    3.78096029    5.71413271
C     8.04229036    3.73542738    6.99871247
C     9.10983166    4.57762823    7.64149073
C    10.14636900    5.13775458    6.80040904
C    11.10974580    5.95970478    7.47471812
C    11.05087284    6.21802282    8.84366782
C    10.03207455    5.66918880    9.63517674
C     9.07506649    4.85463510    9.00985661
H    11.91047750    6.38975533    6.86281990
H    11.81359963    6.85671127    9.30288651
N     6.17369771    5.14444256    2.99163775
O     4.72925317    7.66786755    2.87493437
C     7.08169988    4.09596482    3.40760755
C     5.86064825    5.17423988    1.74372131
C     4.97772910    6.10206862    1.04786202
C     4.50148794    7.34310669    1.66560214
C     3.75564554    8.23235682    0.81476786
C     3.45844144    7.92699250   -0.50242857
C     3.88496698    6.71565498   -1.07566047
C     4.63732174    5.81267314   -0.31250156
H     6.32506235    4.41575906    1.08320046
H     3.40438631    9.17219262    1.24953034
O     2.71903814    8.82749052   -1.22809597
H     6.65293703   -1.14994164   -4.43745186
C     6.04227639    0.69849770   -2.94266220
O     6.63994282   -0.38118032   -5.02992670
C     6.31130055    0.73599147   -4.32057242
C     5.71081820    1.86583096   -2.26198919
C     6.24311563    1.95818596   -5.00289664
C     5.63725410    3.10877201   -2.92624145
C     5.91200499    3.12008768   -4.30950952
H     6.09606787   -0.25696808   -2.41249387
C     5.02682726    4.53485105   -0.94163461
C     5.29706552    4.36634249   -2.25521639
H     5.50636229    1.80511102   -1.19076209
H     6.45288067    1.98203545   -6.07473481
H     5.86300410    4.06861018   -4.85169973
H     5.28293054    5.24358652   -2.91157430
H     5.07603290    3.66108591   -0.28714015
H     8.27138244    4.41112719    9.60998106
H     9.98369207    5.86753774   10.70903136
H     3.57869921    6.46711292   -2.09403312
C     6.44082420    3.13409129    4.41368127
H     7.17232673    2.33848323    4.63708668
H     5.57963874    2.63150905    3.93862841
H     7.96612894    4.55040417    3.88680361
H     7.45454285    3.50621816    2.54236239
H     5.12190197    4.46296053    5.48384886
H     5.53533615    2.97772190    6.36178653
H     2.59102989    8.48205581   -2.12543661
H     8.50368482    3.13624322    6.19880893
H     7.62961829    3.01482859    7.73931667
H     6.54697823    5.08931889    7.14790076
