70
Coordinates from ORCA-job DU_L1_aq_B3LYP_def2SVP E -1722.156939396259
N     6.91729228    5.95568125    5.57810295
O     7.85870853    8.64285280    6.43906777
C     6.37022939    4.84542293    4.82654351
O    12.79539777    3.72130382   16.46375010
C     7.50422361    5.66074787    6.68095602
C     8.16583760    6.55601979    7.62432011
C     8.29542380    7.99860179    7.44077793
C     8.98590129    8.68563266    8.51450483
C     9.49890521    8.04957517    9.62211082
C     9.37928467    6.64036885    9.78985375
C     8.70752467    5.94832079    8.77189641
C     9.91361860    5.91245132   10.93127777
C    10.59229840    6.41935897   11.99131299
C    11.13233926    5.66507846   13.12353703
C    11.81754043    6.35378089   14.15051235
C    12.35770335    5.68965565   15.24631601
C    12.23298890    4.29579662   15.36014357
C    11.55477559    3.58566441   14.35631611
C    11.01830226    4.26653827   13.26264924
C    12.70847697    2.31345036   16.61588758
H     7.53402019    4.59723476    7.00655788
H     9.08932395    9.76960038    8.40022085
H    10.00997449    8.64373992   10.38548101
H     8.59653253    4.86243316    8.87254882
H     9.73354744    4.83133110   10.89736913
H    10.77765574    7.49824442   12.03551856
H    11.92653370    7.43977387   14.07889284
H    12.88628279    6.23592420   16.03122370
H    11.43964679    2.50322946   14.41579514
H    10.49867792    3.68377964   12.49860627
H    11.66004218    1.97533799   16.68362707
H    13.22436371    2.06856242   17.55417721
H    13.20404364    1.78338475   15.78424398
N     6.93034406    5.71403636    2.55681226
O     6.85282372    8.40934150    1.34823738
C     7.07567550    4.61324123    3.48467726
O     2.05057596    3.71451233   -8.85237139
C     6.37591495    5.44501000    1.43125730
C     6.09942109    6.35293555    0.32400312
C     6.36566772    7.78768166    0.35583066
C     6.02080645    8.49328475   -0.86275710
C     5.47853925    7.88200495   -1.97073158
C     5.21364482    6.48276920   -1.99161510
C     5.53871991    5.77154173   -0.82732045
C     4.64028076    5.78255874   -3.13134063
C     4.27346285    6.30757168   -4.32765440
C     3.69893005    5.58005423   -5.46058429
C     3.39026803    6.28114433   -6.64878141
C     2.84574195    5.64289333   -7.75771618
C     2.58496008    4.26372442   -7.72229664
C     2.87981347    3.54174957   -6.55451594
C     3.42622822    4.19658896   -5.44994602
C     1.77202812    2.32350650   -8.86431494
H     6.05839040    4.39931886    1.22224355
H     6.21488624    9.57084640   -0.86387353
H     5.24648181    8.48918740   -2.85076368
H     5.34781923    4.69220102   -0.81069324
H     4.50375988    4.70624176   -2.97260096
H     4.40789155    7.38131444   -4.49889002
H     3.58673082    7.35611694   -6.69605025
H     2.61297429    6.19869498   -8.66919767
H     2.68733954    2.47036630   -6.49478470
H     3.64315703    3.60554543   -4.55722350
H     2.68662815    1.72445660   -8.71302312
H     1.35572377    2.09702876   -9.85524808
H     1.03173268    2.05065006   -8.09252197
H     8.14990663    4.45982055    3.69842162
H     6.69203424    3.65941619    3.06371247
H     5.30209797    5.03857020    4.61798871
H     6.42202113    3.89307432    5.39555320
