73
Coordinates from ORCA-job DU_Ligand_aq_B3LYP_def2SVP E -1761.419664504850
C     7.24665264    3.93533138    4.31421388
N     7.86848492    5.57774017    6.03887483
O    10.35063534    7.20969635    6.16996893
C     6.78609103    4.77294321    5.51223625
O    11.57987769    4.44606725   18.00019138
C     8.25156767    5.33105661    7.23776640
C     9.35401211    5.94144265    7.97546019
C    10.33558902    6.84814199    7.38677124
C    11.34782461    7.32401869    8.30795145
C    11.40578445    6.95817798    9.63376736
C    10.45418465    6.06224257   10.19852139
C     9.46049725    5.58397093    9.33184656
C    10.47227582    5.63546643   11.59002308
C    11.35546306    6.00005027   12.55345346
C    11.35767093    5.56052483   13.94953992
C    12.36700180    6.03008039   14.82090749
C    12.42039902    5.64738816   16.15663268
C    11.45627297    4.77106196   16.67993882
C    10.44155269    4.28874118   15.83750101
C    10.40161284    4.68190734   14.49910030
C    10.62367696    3.57089588   18.57664374
H     7.70203148    4.56755302    7.83220538
H    12.09283076    8.00849498    7.88938471
H    12.20492634    7.36434821   10.26094599
H     8.71425316    4.88923946    9.73442621
H     9.66733464    4.94044920   11.85732918
H    12.16417422    6.69253442   12.29507493
H    13.12713107    6.71363327   14.43184315
H    13.20706706    6.01921057   16.81752077
H     9.67813570    3.60775334   16.21415088
H     9.59837687    4.28910208   13.87136416
H     8.06392171    3.26614745    4.63626709
H     5.97580033    5.43983652    5.16989615
H     6.35490883    4.09984955    6.28279441
H     9.60445493    3.99118942   18.52438523
H    10.90720479    3.44996388   19.63090517
H    10.63043919    2.58177351   18.08694308
N     6.66888507    5.59745642    2.59388263
O     4.22896700    7.28989767    2.48640877
C     7.72923282    4.76092748    3.11619852
O     2.67072032    4.40072753   -9.27328477
C     6.25941852    5.34761034    1.40429739
C     5.16536491    5.98375444    0.67608939
C     4.21912397    6.92303393    1.27127156
C     3.21099208    7.42519271    0.35953253
C     3.12162815    7.04881369   -0.96150233
C     4.03438636    6.11594883   -1.53073665
C     5.02671881    5.61606868   -0.67470547
C     3.97516412    5.67041612   -2.91527416
C     3.08812819    6.05477489   -3.86754485
C     3.03612092    5.58919586   -5.25415890
C     2.03834030    6.09692039   -6.11739459
C     1.93740505    5.68919046   -7.44293522
C     2.83941546    4.74751566   -7.96352466
C     3.84154801    4.22640130   -7.12909219
C     3.92996263    4.64577794   -5.80100841
C     3.55658164    3.45110630   -9.84437064
H     6.77521942    4.55974710    0.81143037
H     2.49475539    8.13725203    0.78225715
H     2.32668909    7.47428497   -1.58109148
H     5.74409376    4.89371156   -1.08111721
H     4.74688255    4.93993327   -3.18604783
H     2.31522781    6.78577313   -3.60582557
H     1.32584516    6.83089609   -5.73006558
H     1.16042047    6.09095662   -8.09772895
H     4.55683942    3.49390912   -7.50363210
H     4.72053257    4.22052978   -5.17847345
H     6.41127658    3.28913647    3.99157326
H     8.55980393    5.40307340    3.45693009
H     8.13767771    4.07572603    2.34394394
H     4.60153883    3.80567469   -9.82294653
H     3.24387812    3.32184210  -10.88933986
H     3.49656629    2.47746793   -9.32799105
