81
Coordinates from ORCA-job DU_L3_aq_B3LYP_def2SVP E -1990.187082824317
C     7.15639829    3.70182111    4.33454638
N     7.68353123    5.38476786    6.05266714
O     9.93852994    7.28259298    6.14234762
C     6.65690291    4.50051296    5.54365355
O    11.76584987    4.68504283   17.93067244
C     8.08943806    5.18951256    7.25246563
C     9.15192001    5.89450801    7.96418547
C    10.01831882    6.88511224    7.34488946
C    11.04559340    7.41738120    8.23148140
C    11.17343289    7.05672927    9.55264759
C    10.29854683    6.10730141   10.15082730
C     9.31942371    5.55065225    9.31976078
C    10.38832971    5.70138630   11.54567047
C    11.27987679    6.13315150   12.47252930
C    11.35244332    5.71852769   13.87431602
C    12.37176482    6.24473630   14.70031635
C    12.48906100    5.88727930   16.03893199
C    11.58169824    4.98108020   16.61083101
C    10.55810193    4.44295212   15.81405442
C    10.45385170    4.81122931   14.47215239
C    10.86865600    3.78123010   18.55593451
H     7.60681203    4.39649517    7.86541169
O    11.90773840    8.37961233    7.72136329
H    11.97164036    7.52694823   10.13277193
H     8.64029815    4.80322511    9.74451031
H     9.63653427    4.96276127   11.84746584
H    12.03776071    6.86629244   12.17522509
H    13.08764300    6.95272173   14.27300742
H    13.28242882    6.30245076   16.66506560
H     9.83714416    3.73843309   16.22916907
H     9.64454250    4.37737863   13.88041343
H     8.00279526    3.06540540    4.64801445
H     5.79363460    5.10684809    5.21843289
H     6.29000586    3.79601540    6.31954945
H     9.83148380    4.15795897   18.53419017
H    11.19468618    3.69072062   19.60089593
H    10.89932640    2.78481090   18.08223779
N     6.52538862    5.38269758    2.64356954
O     4.07541685    7.05288318    2.52537576
C     7.60667529    4.56369116    3.14992706
O     2.86585264    4.64297779   -9.37026906
C     6.15612222    5.18106652    1.43149837
C     5.07069249    5.82337334    0.69666299
C     4.10878674    6.72163087    1.30366287
C     3.10333294    7.25568515    0.37985326
C     3.05473412    6.92846393   -0.95604410
C     4.00382361    6.02512028   -1.52659275
C     4.97856997    5.50247631   -0.67570469
C     3.98372883    5.64151592   -2.92917181
C     3.11196536    6.05286603   -3.88512991
C     3.10425331    5.65117609   -5.29218385
C     2.11315095    6.17191732   -6.15561375
C     2.05444083    5.82409614   -7.50057887
C     2.99419947    4.93236431   -8.04200061
C     3.99091642    4.40005980   -7.20831503
C     4.03661606    4.75876297   -5.86041235
C     3.79129840    3.74533334   -9.96199392
H     6.71009455    4.43626161    0.81799895
O     2.22179979    8.11152211    0.99380637
H     2.28122992    7.35807498   -1.59284933
H     5.71714024    4.80761469   -1.09002020
H     4.77471082    4.93726440   -3.21270645
H     2.31831218    6.75631427   -3.61063465
H     1.37174908    6.86781398   -5.75251566
H     1.28199387    6.23523173   -8.15494832
H     4.73554022    3.70618075   -7.59888902
H     4.82466341    4.32667259   -5.23931163
H     6.35098623    3.02300055    4.00288256
H     8.41973799    5.22312639    3.50024920
H     8.03371088    3.90567832    2.36394227
H     4.82497802    4.12726433   -9.90003433
H     3.50617897    3.65490925  -11.01888333
H     3.74784251    2.74782390   -9.49150943
C    12.87532552    7.88228704    6.80329193
H    13.49385007    8.73523334    6.48609614
H    12.40078394    7.43438564    5.91580614
H    13.52732559    7.12935717    7.28289599
C     1.22022184    8.71904575    0.20227293
H     0.63829682    9.36901399    0.87074659
H     0.54291887    7.97158285   -0.24889883
H     1.65402956    9.33356666   -0.60713257
