30
Coordinates from ORCA-job CuRIBTSC_aq_B3LYP_def2SVP E -3188.351140819027
C    -0.20888034    4.12667240    0.58539122
O     1.04696865    4.64007397    0.17304108
H    -0.98995632    4.91243946    0.57449176
H    -0.15955766    3.71751453    1.61318641
C    -0.61801925    3.01768996   -0.37501487
H     1.27649200    5.36940933    0.76639557
O    -0.75977334    3.51511180   -1.69846148
C    -1.89754070    2.32810458    0.12926021
H     0.20310946    2.27705855   -0.39608984
H    -1.71583227    3.64101523   -1.88093033
H    -2.66897344    3.09586433    0.30810683
H    -1.68182567    1.83570572    1.08817456
C    -2.45421679    1.31699371   -0.82690824
N    -3.16918830    1.63212183   -1.87162321
C    -2.23916679   -0.11590638   -0.63615027
N    -3.42152251    2.90606382   -2.21886077
H    -1.65797897   -0.49282232    0.21277214
N    -2.76812345   -0.91574684   -1.51181787
C    -4.17799698    3.01429370   -3.31025895
S    -4.80073885    1.66744218   -4.25980408
N    -4.48523035    4.25212328   -3.72294147
H    -4.15611877    5.05672702   -3.19779898
H    -5.04251553    4.39674616   -4.55617903
Cu   -3.79732098    0.06311848   -2.94228541
N    -2.65641435   -2.24242248   -1.46171187
C    -3.29390074   -2.85191583   -2.46350765
S    -4.20562542   -2.05729059   -3.74637350
N    -3.23441569   -4.18987476   -2.49378744
H    -3.69552817   -4.71564768   -3.22661529
H    -2.71876847   -4.68560316   -1.77252924
