29
Coordinates from ORCA-job Ref_RIBTSC_aq_B3LYP_def2SVP E -1548.253828041317
C    -0.17763540    3.68489178    0.58526764
O     1.02986006    4.30081190    0.15992587
H    -0.86910332    4.42659718    1.03272923
H     0.02058951    2.90674313    1.34764956
C    -0.85732740    3.04748003   -0.61758993
H     1.42482815    4.73634450    0.92871524
O    -1.12868640    4.05045887   -1.58190319
C    -2.12939458    2.29727867   -0.18868371
H    -0.14290620    2.30301920   -1.03409825
H    -2.03615509    3.82982391   -1.96964704
H    -2.88215317    3.05007283    0.10530617
H    -1.89224221    1.70119612    0.70583848
C    -2.72520831    1.37127271   -1.23657420
N    -3.39730720    1.78304507   -2.27542047
C    -2.53381927   -0.05960384   -1.01034093
N    -3.44564468    3.12771024   -2.45716858
H    -2.05817017   -0.34582656   -0.05525529
N    -2.87110554   -0.99087769   -1.84908145
C    -4.25479617    3.59144180   -3.41930408
S    -5.34067685    2.73224959   -4.42704133
N    -4.13984504    4.95745414   -3.59885723
H    -3.74148674    5.48163818   -2.82275255
H    -4.91588760    5.39779987   -4.07959228
N    -2.61555683   -2.25075637   -1.43294788
C    -2.93587982   -3.23154117   -2.28547867
S    -3.65622229   -3.15426293   -3.84418999
N    -2.58675811   -4.48235788   -1.80900906
H    -3.06627002   -5.26389326   -2.24068594
H    -2.42629931   -4.54629002   -0.80635015
