34
Coordinates from ORCA-job CuGLUTSC_aq_B3LYP_def2SVP E -3302.748636011034
O    -2.56728569    3.14268307   -1.94940476
H    -2.67043054    4.10559402   -1.99630870
C    -2.61961352    2.77167386   -0.58270587
H    -2.58382676    1.66880783   -0.55139158
H    -3.57241154    3.08316526   -0.11740412
C    -1.44932755    3.32959211    0.22037821
O    -0.19800051    2.96585716   -0.36215206
C    -1.45396197    2.89478545    1.69417279
H    -1.47778598    4.43316694    0.18395481
H    -1.54605848    1.79007444    1.72443170
C    -2.60264822    3.50144872    2.50607720
O    -0.22903587    3.29345732    2.29429475
H    -0.18953774    2.00029216   -0.47162641
H     0.44689465    3.14867055    1.60866629
H    -3.56021363    3.14609628    2.10311479
H    -2.56334502    4.59825014    2.41793557
C    -2.51093003    3.11178447    3.94885502
C    -1.79123512    3.93892006    4.91473661
N    -3.00862302    2.00507015    4.42942988
N    -1.71170848    3.49782561    6.13264293
N    -1.08548094    4.15049791    7.11505349
C    -1.13753338    3.50137799    8.27790576
S    -1.92694732    1.94967695    8.56394670
N    -0.53522155    4.08113083    9.32663153
H    -0.53528993    3.63666496   10.23671213
H    -0.06718045    4.97444873    9.20650040
Cu   -2.64123928    1.73182770    6.38230237
N    -3.67595247    1.11933292    3.67729292
C    -4.09176777    0.06144397    4.36662355
S    -3.81583980   -0.22660142    6.08673446
N    -4.78122958   -0.87582042    3.69659522
H    -4.96509858   -0.75106263    2.70581780
H    -5.12163655   -1.70542928    4.16672120
H    -1.33769738    4.89017619    4.61655539
