28
Coordinates from ORCA-job Exp_CuPTSM_aq_B3LYP_def2SVP E -3038.065829219216
N    -7.25444287    0.95401901   -0.94828412
C    -6.82765896    1.56961365    0.16771906
N    -7.72297019    1.80019487    1.12396628
N    -7.19859342    2.41720618    2.19152503
C    -7.91439415    2.73314481    3.23742619
S    -5.11220910    2.00165697    0.22939413
C    -9.37353757    2.43817921    3.34595816
C    -7.17588916    3.40362221    4.30526299
N    -5.90946219    3.61577584    4.11146290
N    -5.11889603    4.21670406    5.00393181
C    -3.85682188    4.32052141    4.58565667
H    -7.67553709    3.71329778    5.23021986
N    -2.97897195    4.91246408    5.41098252
C    -3.32568981    5.43797979    6.71812935
H    -2.01850011    4.98771447    5.09494266
Cu   -5.26748435    2.93834883    2.32674305
C    -8.62669036    0.53599530   -1.15970656
H    -6.57221181    0.78129528   -1.67811716
S    -3.22797674    3.74762516    3.03578819
H    -8.69560782    0.05085931   -2.14163474
H    -9.31821936    1.39387947   -1.13840805
H    -8.95264734   -0.17865406   -0.38708083
H    -3.71332815    4.64752761    7.38048769
H    -4.09338315    6.22462377    6.64452078
H    -2.42236743    5.86651153    7.17034622
H    -9.55428356    1.35375219    3.25913971
H    -9.92562539    2.91737073    2.52046818
H    -9.77996005    2.79298054    4.30245006
