27
Coordinates from ORCA-job Exp_PTSM_aq_M06_def2SVP E -1397.958052798540
N    -7.53451270    0.58895997   -1.30532135
C    -6.66315240    1.19804886   -0.42310988
N    -7.27555713    1.84088966    0.57655720
N    -6.46539014    2.41466208    1.49851196
C    -7.07469607    3.08240491    2.44154895
S    -4.97942075    1.01648604   -0.75984589
C    -8.57712661    3.22160240    2.50184925
C    -6.30352282    3.73980549    3.49401134
N    -5.01205458    3.69830962    3.60861953
N    -4.51348847    4.40311373    4.65616225
C    -3.19031037    4.36079674    4.82183479
H    -6.88668610    4.31332824    4.23757006
N    -2.74375658    5.07686956    5.91998943
C    -3.54978241    6.06866326    6.59912851
H    -1.74109903    5.22468435    5.91322631
C    -8.95598499    0.85114623   -1.33741087
H    -7.09342131    0.27672305   -2.16209981
S    -1.97934101    3.54262281    3.90133010
H    -9.39755476    0.29889236   -2.18006210
H    -9.19646001    1.92465288   -1.46204088
H    -9.45489086    0.51768131   -0.41314953
H    -4.43611588    5.61659749    7.07043738
H    -3.91644194    6.86886508    5.92683593
H    -2.94380658    6.53572191    7.38957982
H    -9.06540912    2.23425648    2.57159760
H    -8.97101008    3.68495931    1.58088331
H    -8.89383730    3.82890620    3.36280659
